Circuit: * D:\Users\gizmo\Documents\Develop\Dual_OTA_VCA\spice\V-I Convert wLPF Att2.asc

Direct Newton iteration for .op point succeeded.
.step rfc=10000
.step rfc=20000
.step rfc=30000
.step rfc=40000
.step rfc=50000
.step rfc=60000
.step rfc=70000
.step rfc=80000
.step rfc=90000
.step rfc=100000

Date: Mon Aug 14 17:57:26 2017
Total elapsed time: 0.515 seconds.

tnom = 27
temp = 27
method = modified trap
totiter = 2247
traniter = 2221
tranpoints = 1087
accept = 1071
rejected = 16
matrix size = 18
fillins = 10
solver = Normal
Matrix Compiler1: 1.20 KB object code size  0.4/0.1/[0.1]
Matrix Compiler2:     147 opcodes  0.2/[0.2]/0.3


